version 2
1
1
.ac dec 10 10 2k{return}.kicad adjustpaths{return}.save all{return}.probe alli
2
9
V(/V1)
 
9
V(/V2)
 
