version 2
1
1
.ac dec 10 10 500{return}.kicad adjustpaths{return}.save all{return}.probe alli
1
9
V(/OUT)
 
